src/examples/case14_twoarea/two_area_02pulim/res_branch_2.csv
branch,from_bus,to_bus,X,B,G,Bfr,Bto,p_from,p_to,q_from,q_to,p_loss,q_loss,s_from,s_to,rate_a,ang_deg,angmin,angmax
7,4,5,0.035091666666666674,-24.893929112009626,9.470452253013397,0.0,0.0,-0.013400965798864212,0.013403544344674589,0.0034028610257286645,-0.0033960830878903272,2.5785458103774056e-6,6.777937838337283e-6,0.013826255729688767,0.013827088679093399,0.2,-0.02985176180798971,-60.0001403060998,60.0001403060998
4,2,4,0.14693333333333336,-5.885295774936327,2.3275490300468458,0.014166666666666668,0.014166666666666668,0.17945398083737774,-0.17759644338716918,0.00018050581398149578,-0.023870642035710737,0.0018575374502085573,-0.023690136221729243,0.17945407161926089,0.17919348273575417,0.2,1.4598320400807285,-60.0001403060998,60.0001403060998
2,1,5,0.18586666666666668,-4.960987561041088,1.4421206487968972,0.0205,0.0205,0.19630602976706021,-0.19420605407451877,0.013762122049751259,-0.04779140675468824,0.0020999756925414448,-0.03402928470493698,0.19678783835953426,0.20000002499696584,0.2,1.9715139851264059,-60.0001403060998,60.0001403060998
3,2,3,0.164975,-5.606663082452164,1.5969516487008768,0.01825,0.01825,0.07948748629363803,-0.07914911028883419,0.012862312565143308,-0.04836616388822803,0.0003383760048038392,-0.03550385132308472,0.08052142299912947,0.09275703460534393,0.2,0.6634433111692588,-60.0001403060998,60.0001403060998
5,2,5,0.14490000000000003,-5.977892318521822,2.3494890789497425,0.014416666666666668,0.014416666666666668,0.1788100579936638,-0.1770001833570818,0.0013135964768002625,-0.025598321285741722,0.0018098746365820262,-0.02428472480894146,0.17881488298069959,0.17884165890834447,0.2,1.4299802782727389,-60.0001403060998,60.0001403060998
6,3,4,0.142525,-5.746114879729376,2.701611353030454,0.005333333333333334,0.005333333333333334,0.08867148224725291,-0.08812240050912071,-0.02270174932277404,0.013276648289411086,0.0005490817381322011,-0.009425101033362955,0.09153142185194633,0.08911692802880158,0.2,0.7963887289114698,-60.0001403060998,60.0001403060998
1,1,2,0.04930833333333334,-17.566853542948998,6.904423626750412,0.022000000000000002,0.022000000000000002,0.19861542809684937,-0.19786630964973165,-0.013762132041612862,-0.02913646349748231,0.0007491184471177248,-0.04289859553909517,0.19909164863556064,0.20000002499885747,0.2,0.5415337068536666,-60.0001403060998,60.0001403060998
